Version 4
SHEET 1 880 680
WIRE -64 -224 -224 -224
WIRE 176 -224 -64 -224
WIRE -224 -192 -224 -224
WIRE -64 -192 -64 -224
WIRE 176 -192 176 -224
WIRE -224 -80 -224 -112
WIRE 176 -80 176 -112
WIRE 272 -80 176 -80
WIRE 368 -80 336 -80
WIRE 176 -48 176 -80
WIRE -176 0 -224 0
WIRE -64 0 -64 -112
WIRE -64 0 -112 0
WIRE 96 0 -64 0
WIRE 112 0 96 0
WIRE -224 32 -224 0
WIRE -64 64 -64 0
WIRE 176 64 176 48
WIRE 176 128 176 64
WIRE 176 144 176 128
WIRE -256 192 -352 192
WIRE -64 192 -64 144
WIRE -64 192 -192 192
WIRE 96 192 -64 192
WIRE 112 192 96 192
WIRE -352 272 -352 192
WIRE 176 272 176 240
WIRE 272 272 176 272
WIRE 368 272 336 272
WIRE -64 304 -64 192
WIRE 176 304 176 272
WIRE -352 416 -352 352
WIRE -64 416 -64 384
WIRE -64 416 -352 416
WIRE 176 416 176 384
WIRE 176 416 -64 416
WIRE 368 416 368 272
WIRE 368 416 176 416
WIRE 176 448 176 416
FLAG 176 448 0
FLAG -224 -80 0
FLAG -224 32 0
FLAG -352 192 IN
FLAG 368 -80 OUT
IOPIN 368 -80 Out
FLAG 96 192 B1
FLAG 96 0 B2
FLAG 176 272 E1
FLAG 176 64 E2
FLAG 176 -80 C2
FLAG 176 128 C1
SYMBOL npn 112 -48 R0
SYMATTR InstName Q1
SYMATTR Value 2N3904
SYMBOL npn 112 144 R0
SYMATTR InstName Q2
SYMATTR Value 2N3904
SYMBOL res -80 48 R0
SYMATTR InstName R1
SYMATTR Value 5.6k
SYMBOL res 160 -208 R0
SYMATTR InstName R2
SYMATTR Value 1.8k
SYMBOL res -80 -208 R0
SYMATTR InstName R3
SYMATTR Value 6.8k
SYMBOL cap 336 -96 R90
WINDOW 0 0 32 VBottom 2
WINDOW 3 32 32 VTop 2
SYMATTR InstName C1
SYMATTR Value 4.7µ
SYMBOL voltage -224 -208 R0
SYMATTR InstName V1
SYMATTR Value 18
SYMBOL res -80 288 R0
SYMATTR InstName R4
SYMATTR Value 2.2k
SYMBOL res 160 288 R0
SYMATTR InstName R5
SYMATTR Value 1K
SYMBOL cap 336 256 R90
WINDOW 0 0 32 VBottom 2
WINDOW 3 32 32 VTop 2
SYMATTR InstName C2
SYMATTR Value 20µ
SYMBOL cap -192 176 R90
WINDOW 0 0 32 VBottom 2
WINDOW 3 32 32 VTop 2
SYMATTR InstName C3
SYMATTR Value 4.7µ
SYMBOL voltage -352 256 R0
WINDOW 123 24 124 Left 2
WINDOW 39 0 0 Left 0
SYMATTR Value2 AC 1
SYMATTR InstName V2
SYMATTR Value SINE(0 10m 1k)
SYMBOL cap -112 -16 R90
WINDOW 0 0 32 VBottom 2
WINDOW 3 32 32 VTop 2
SYMATTR InstName C4
SYMATTR Value 10µ
TEXT -352 440 Left 2 !.tran 0.006
TEXT -216 440 Left 2 !;op
