* PSpice Model Editor - Version 9.2

*$
.model Q2N2222  NPN(Is=15.34e-18 Xti=3 Eg=1.11 Vaf=74.03 Bf=50 Ne=1.307
+		Ise=14.34f Ikf=.2847 Xtb=1.5 Br=6.092 Nc=2 Isc=0 Ikr=0 Rc=1
+		Cjc=7.306p Mjc=.3416 Vjc=.75 Fc=.5 Cje=22.01p Mje=.377 Vje=0.75
+		Tr=46.91n Tf=411.1p Itf=.6 Vtf=1.7 Xtf=3 Rb=10)
*		National	pid=19		case=TO18
*		88-09-07 bam	creation
*$
