Version 4
SHEET 1 880 1000
WIRE 192 -208 112 -208
WIRE 112 -176 112 -208
WIRE 192 -144 192 -208
WIRE -384 -128 -480 -128
WIRE -384 -96 -384 -128
WIRE -480 -64 -480 -128
WIRE 112 -32 112 -96
WIRE 64 16 -48 16
WIRE 288 16 144 16
WIRE -48 80 -48 16
WIRE 288 80 288 16
WIRE -48 224 -48 160
WIRE 288 224 288 160
WIRE -112 272 -144 272
WIRE 384 272 352 272
WIRE -384 288 -384 -16
WIRE -144 304 -144 272
WIRE 384 304 384 272
WIRE -48 368 -48 320
WIRE 112 368 -48 368
WIRE 288 368 288 320
WIRE 288 368 112 368
WIRE -384 464 -384 368
WIRE -144 464 -384 464
WIRE -384 496 -384 464
WIRE 112 496 112 368
WIRE -144 544 -144 464
WIRE -144 544 -320 544
WIRE 48 544 -144 544
WIRE -384 656 -384 592
WIRE 112 656 112 592
WIRE 112 656 -384 656
WIRE 112 704 112 656
WIRE 112 816 112 784
FLAG 192 -144 0
FLAG -480 -64 0
FLAG 384 304 0
FLAG -144 304 0
FLAG 112 816 0
SYMBOL res -64 64 R0
SYMATTR InstName R1
SYMATTR Value 5.568k
SYMBOL res 272 64 R0
SYMATTR InstName R2
SYMATTR Value 5.610k
SYMBOL res -368 384 R180
WINDOW 0 36 76 Left 2
WINDOW 3 36 40 Left 2
SYMATTR InstName R3
SYMATTR Value 10k
SYMBOL voltage 112 -80 R180
WINDOW 0 39 87 Left 2
WINDOW 3 20 18 Left 2
WINDOW 123 0 0 Left 0
WINDOW 39 0 0 Left 0
SYMATTR InstName V2
SYMATTR Value 9
SYMBOL npn 48 496 R0
SYMATTR InstName Q4
SYMATTR Value 2N2222
SYMBOL npn -112 224 R0
SYMATTR InstName Q1
SYMATTR Value 2N2222
SYMBOL npn -320 496 M0
SYMATTR InstName Q3
SYMATTR Value 2N2222
SYMBOL npn 352 224 M0
SYMATTR InstName Q2
SYMATTR Value 2N2222
SYMBOL voltage -384 0 R180
WINDOW 0 24 96 Left 2
WINDOW 3 24 16 Left 2
WINDOW 123 0 0 Left 0
WINDOW 39 0 0 Left 0
SYMATTR InstName V1
SYMATTR Value 9
SYMBOL voltage 112 800 R180
WINDOW 0 24 96 Left 2
WINDOW 3 24 16 Left 2
WINDOW 123 0 0 Left 0
WINDOW 39 0 0 Left 0
SYMATTR InstName V3
SYMATTR Value 9
SYMBOL pot 48 32 R270
WINDOW 0 40 -14 VRight 2
WINDOW 3 40 96 VRight 2
SYMATTR InstName U1
SYMATTR Value Rtot=1k wiper=.47
TEXT -376 680 Left 2 !.op
TEXT -376 712 Left 2 !;tran 0.006
TEXT -376 744 Left 2 !.include pot.sub
