Version 4
SHEET 1 880 1000
WIRE 208 -128 128 -128
WIRE 128 -96 128 -128
WIRE 208 -64 208 -128
WIRE -48 16 -192 16
WIRE 128 16 128 -16
WIRE 128 16 -48 16
WIRE 288 16 128 16
WIRE -48 80 -48 16
WIRE 288 80 288 16
WIRE -48 224 -48 160
WIRE 288 224 288 160
WIRE -112 272 -128 272
WIRE 384 272 352 272
WIRE -192 288 -192 16
WIRE -48 368 -48 320
WIRE 112 368 -48 368
WIRE 288 368 288 320
WIRE 288 368 112 368
WIRE -128 400 -128 272
WIRE 384 400 384 272
WIRE 384 400 -128 400
WIRE -192 432 -192 368
WIRE -48 432 -192 432
WIRE -192 464 -192 432
WIRE 112 464 112 368
WIRE 384 480 384 400
WIRE -48 512 -48 432
WIRE -48 512 -128 512
WIRE 48 512 -48 512
WIRE -192 624 -192 560
WIRE 112 624 112 560
WIRE 112 624 -192 624
WIRE 384 624 384 560
WIRE 384 624 112 624
WIRE 384 656 384 624
FLAG 384 656 0
FLAG 208 -64 0
SYMBOL res -64 64 R0
SYMATTR InstName Rc1
SYMATTR Value 5.6k
SYMBOL res 272 64 R0
SYMATTR InstName Rc2
SYMATTR Value 5.6k
SYMBOL res -176 384 R180
WINDOW 0 36 76 Left 2
WINDOW 3 36 40 Left 2
SYMATTR InstName R3
SYMATTR Value 2.8k
SYMBOL voltage 128 0 R180
WINDOW 0 39 87 Left 2
WINDOW 3 41 57 Left 2
WINDOW 123 0 0 Left 0
WINDOW 39 0 0 Left 0
SYMATTR InstName V1
SYMATTR Value 15
SYMBOL npn 48 464 R0
SYMATTR InstName Q1
SYMATTR Value 2N2222
SYMBOL npn -112 224 R0
SYMATTR InstName Q2
SYMATTR Value 2N2222
SYMBOL npn -128 464 M0
SYMATTR InstName Q3
SYMATTR Value 2N2222
SYMBOL npn 352 224 M0
SYMATTR InstName Q4
SYMATTR Value 2N2222
SYMBOL voltage 384 464 R0
WINDOW 123 0 0 Left 0
WINDOW 39 0 0 Left 0
SYMATTR InstName V2
SYMATTR Value 7.5
TEXT -184 648 Left 2 !.op
