Version 4
SHEET 1 880 1000
WIRE -512 -32 -512 -64
WIRE -400 -32 -400 -64
WIRE -128 64 -128 16
WIRE -512 80 -512 48
WIRE -400 80 -400 48
WIRE -400 80 -512 80
WIRE -160 80 -208 80
WIRE -512 96 -512 80
WIRE 16 96 -96 96
WIRE 128 96 16 96
WIRE -160 112 -320 112
WIRE 16 112 16 96
WIRE 128 112 128 96
WIRE -320 128 -320 112
WIRE -128 176 -128 128
WIRE 16 208 16 192
WIRE 16 208 -48 208
WIRE 16 224 16 208
WIRE -320 240 -320 208
WIRE -208 256 -208 80
WIRE -48 256 -48 208
WIRE -48 256 -208 256
WIRE 16 320 16 304
WIRE 128 320 128 192
WIRE 128 320 16 320
WIRE 16 336 16 320
FLAG -512 96 0
FLAG -512 -64 +15
IOPIN -512 -64 Out
FLAG -400 -64 -15
IOPIN -400 -64 Out
FLAG -128 16 +15
IOPIN -128 16 Out
FLAG -128 176 -15
IOPIN -128 176 Out
FLAG 16 336 0
FLAG -320 240 0
SYMBOL OpAmps\\opamp2 -128 32 R0
SYMATTR InstName U1
SYMATTR Value uA741
SYMBOL res 0 96 R0
SYMATTR InstName R2
SYMATTR Value 10k
SYMBOL res 112 96 R0
SYMATTR InstName R3
SYMATTR Value 1k
SYMBOL voltage -512 -48 R0
WINDOW 123 0 0 Left 0
WINDOW 39 0 0 Left 0
SYMATTR InstName V1
SYMATTR Value 15
SYMBOL voltage -400 64 M180
WINDOW 0 24 96 Left 2
WINDOW 3 24 16 Left 2
WINDOW 123 0 0 Left 0
WINDOW 39 0 0 Left 0
SYMATTR InstName V2
SYMATTR Value 15
SYMBOL res 0 208 R0
SYMATTR InstName R1
SYMATTR Value 1k
SYMBOL voltage -320 112 R0
WINDOW 0 -74 42 Left 2
WINDOW 3 -230 70 Left 2
WINDOW 123 0 0 Left 0
WINDOW 39 0 0 Left 0
SYMATTR InstName V3
SYMATTR Value SINE(0 200m 1k)
TEXT -240 288 Left 2 !.include uA741.sub
TEXT -152 320 Left 2 !.tran 0.006
